Version 4
SHEET 1 1116 2228
WIRE 96 -96 96 -144
WIRE 144 -96 96 -96
WIRE 256 -96 208 -96
WIRE 96 0 96 -96
WIRE 144 0 96 0
WIRE 256 0 256 -96
WIRE 256 0 208 0
WIRE 256 32 256 0
WIRE 96 48 96 0
WIRE -240 64 -544 64
WIRE -144 64 -176 64
WIRE 64 64 -144 64
WIRE -544 80 -544 64
WIRE 64 96 -48 96
WIRE -48 112 -48 96
WIRE -1120 128 -1120 96
WIRE 432 144 240 144
WIRE -144 160 -144 144
WIRE -544 176 -544 160
WIRE -544 176 -736 176
WIRE -736 192 -736 176
WIRE -544 192 -544 176
WIRE 64 192 -48 192
WIRE -1120 224 -1120 208
WIRE -1120 224 -1184 224
WIRE 64 224 -64 224
WIRE -1120 240 -1120 224
WIRE 176 240 176 208
WIRE 352 240 176 240
WIRE -1184 256 -1184 224
WIRE -1120 256 -1120 240
WIRE -544 288 -544 272
WIRE -240 288 -544 288
WIRE -144 288 -176 288
WIRE -64 288 -64 224
WIRE -64 288 -144 288
WIRE -736 320 -736 272
WIRE 96 320 96 240
WIRE 144 320 96 320
WIRE 256 320 208 320
WIRE -1120 352 -1120 320
WIRE 352 352 352 240
WIRE -144 384 -144 368
WIRE 96 416 96 320
WIRE 144 416 96 416
WIRE 256 416 256 320
WIRE 256 416 208 416
WIRE 256 464 256 416
WIRE 96 480 96 416
WIRE 96 800 96 752
WIRE 144 800 96 800
WIRE 256 800 208 800
WIRE 96 896 96 800
WIRE 144 896 96 896
WIRE 256 896 256 800
WIRE 256 896 208 896
WIRE 256 928 256 896
WIRE 96 944 96 896
WIRE -240 960 -736 960
WIRE -144 960 -176 960
WIRE 64 960 -144 960
WIRE 64 992 -48 992
WIRE -48 1008 -48 992
WIRE 432 1040 240 1040
WIRE -144 1056 -144 1040
WIRE 64 1088 -48 1088
WIRE 64 1120 -272 1120
WIRE 176 1136 176 1104
WIRE 352 1136 176 1136
WIRE 96 1216 96 1136
WIRE 144 1216 96 1216
WIRE 256 1216 208 1216
WIRE -736 1232 -736 960
WIRE 352 1248 352 1136
WIRE -336 1296 -384 1296
WIRE -272 1296 -272 1120
WIRE -256 1296 -272 1296
WIRE -144 1296 -176 1296
WIRE 96 1312 96 1216
WIRE 144 1312 96 1312
WIRE 256 1312 256 1216
WIRE 256 1312 208 1312
WIRE -144 1344 -144 1296
WIRE 256 1360 256 1312
WIRE 96 1376 96 1312
WIRE -736 1440 -736 1312
WIRE -736 1440 -1104 1440
WIRE -384 1440 -384 1296
WIRE -384 1440 -736 1440
WIRE -1104 1472 -1104 1440
WIRE -736 1520 -736 1440
WIRE -384 1568 -384 1440
WIRE -336 1568 -384 1568
WIRE -240 1568 -272 1568
WIRE -144 1568 -160 1568
WIRE 96 1568 96 1520
WIRE 144 1568 96 1568
WIRE 256 1568 208 1568
WIRE -1104 1600 -1104 1552
WIRE -144 1616 -144 1568
WIRE 96 1664 96 1568
WIRE 144 1664 96 1664
WIRE 256 1664 256 1568
WIRE 256 1664 208 1664
WIRE 256 1696 256 1664
WIRE 96 1712 96 1664
WIRE -736 1728 -736 1600
WIRE -240 1728 -736 1728
WIRE -144 1728 -176 1728
WIRE 64 1728 -144 1728
WIRE 64 1760 -48 1760
WIRE -48 1776 -48 1760
WIRE 432 1808 240 1808
WIRE -144 1824 -144 1808
WIRE 64 1856 -48 1856
WIRE -272 1888 -272 1568
WIRE 64 1888 -272 1888
WIRE 176 1904 176 1872
WIRE 352 1904 176 1904
WIRE 96 1984 96 1904
WIRE 144 1984 96 1984
WIRE 256 1984 208 1984
WIRE 352 2016 352 1904
WIRE 96 2080 96 1984
WIRE 144 2080 96 2080
WIRE 256 2080 256 1984
WIRE 256 2080 208 2080
WIRE 256 2128 256 2080
WIRE 96 2144 96 2080
FLAG -1184 256 0
FLAG -1120 96 +VS
FLAG -1120 352 -VS
FLAG 96 -144 +VS
FLAG 96 480 -VS
FLAG -736 320 0
FLAG 352 352 0
FLAG -144 160 0
FLAG -144 384 0
FLAG 432 144 OUT1
IOPIN 432 144 Out
FLAG 256 32 0
FLAG 256 464 0
FLAG 96 752 +VS
FLAG 96 1376 -VS
FLAG -1104 1600 0
FLAG 352 1248 0
FLAG -144 1056 0
FLAG -144 1344 0
FLAG 432 1040 OUT2
IOPIN 432 1040 Out
FLAG 256 928 0
FLAG 256 1360 0
FLAG 96 1520 +VS
FLAG 96 2144 -VS
FLAG 352 2016 0
FLAG 432 1808 OUT3
IOPIN 432 1808 Out
FLAG 256 1696 0
FLAG 256 2128 0
FLAG -144 1616 0
FLAG -144 1824 0
SYMBOL Opamps\\AD8221 96 144 R0
SYMATTR InstName U1
SYMBOL voltage -1120 112 R0
WINDOW 123 0 0 Left 0
WINDOW 39 0 0 Left 0
SYMATTR InstName V1
SYMATTR Value 15
SYMBOL voltage -1120 224 R0
WINDOW 123 0 0 Left 0
WINDOW 39 0 0 Left 0
SYMATTR InstName V2
SYMATTR Value 15
SYMBOL res -64 96 R0
SYMATTR InstName R1
SYMATTR Value 499
SYMATTR SpiceLine tol=.1 pwr=.25
SYMBOL voltage -736 176 R0
WINDOW 123 0 0 Left 0
WINDOW 39 0 0 Left 0
SYMATTR InstName V3
SYMATTR Value SINE(0 12 5)
SYMBOL voltage -544 176 R0
WINDOW 123 24 124 Left 2
WINDOW 39 0 0 Left 0
WINDOW 0 34 59 Left 2
SYMATTR Value2 AC 1
SYMATTR InstName V4
SYMATTR Value SINE(0 .05 100 0 0 360)
SYMBOL voltage -544 64 R0
WINDOW 123 24 124 Left 2
WINDOW 39 0 0 Left 0
SYMATTR Value2 AC 1
SYMATTR InstName V5
SYMATTR Value SINE(0 .05 100 0 0 0)
SYMBOL cap -176 48 R90
WINDOW 0 0 32 VBottom 2
WINDOW 3 32 32 VTop 2
SYMATTR InstName C1
SYMATTR Value 10e-9
SYMBOL cap -176 272 R90
WINDOW 0 0 32 VBottom 2
WINDOW 3 32 32 VTop 2
SYMATTR InstName C2
SYMATTR Value 10e-9
SYMBOL res -160 48 R0
SYMATTR InstName R2
SYMATTR Value 1.5e6
SYMBOL res -160 272 R0
SYMATTR InstName R3
SYMATTR Value 1.5e6
SYMBOL cap 208 -16 R90
WINDOW 0 0 32 VBottom 2
WINDOW 3 32 32 VTop 2
SYMATTR InstName C3
SYMATTR Value .1e-6
SYMBOL cap 208 -112 R90
WINDOW 0 0 32 VBottom 2
WINDOW 3 32 32 VTop 2
SYMATTR InstName C4
SYMATTR Value 10e-6
SYMBOL cap 208 304 R90
WINDOW 0 0 32 VBottom 2
WINDOW 3 32 32 VTop 2
SYMATTR InstName C5
SYMATTR Value .1e-6
SYMBOL cap 208 400 R90
WINDOW 0 0 32 VBottom 2
WINDOW 3 32 32 VTop 2
SYMATTR InstName C6
SYMATTR Value 10e-6
SYMBOL Opamps\\AD8221 96 1040 R0
SYMATTR InstName U2
SYMBOL res -64 992 R0
SYMATTR InstName R4
SYMATTR Value 499
SYMATTR SpiceLine tol=.1 pwr=.25
SYMBOL voltage -1104 1456 R0
WINDOW 123 0 0 Left 0
WINDOW 39 0 0 Left 0
WINDOW 3 24 44 Left 2
SYMATTR Value SINE(0 5 60)
SYMATTR InstName V6
SYMBOL voltage -736 1216 R0
WINDOW 123 24 124 Left 2
WINDOW 39 0 0 Left 0
SYMATTR Value2 AC .05
SYMATTR InstName V8
SYMATTR Value SINE(0 .05 .5 0 0 0)
SYMBOL cap -176 944 R90
WINDOW 0 0 32 VBottom 2
WINDOW 3 32 32 VTop 2
SYMATTR InstName C7
SYMATTR Value .1e-6
SYMBOL cap -272 1280 R90
WINDOW 0 0 32 VBottom 2
WINDOW 3 32 32 VTop 2
SYMATTR InstName C8
SYMATTR Value .1e-6
SYMBOL res -160 944 R0
SYMATTR InstName R5
SYMATTR Value 3e6
SYMBOL res -272 1312 R270
WINDOW 0 32 56 VTop 2
WINDOW 3 0 56 VBottom 2
SYMATTR InstName R6
SYMATTR Value 3e6
SYMBOL cap 208 880 R90
WINDOW 0 0 32 VBottom 2
WINDOW 3 32 32 VTop 2
SYMATTR InstName C9
SYMATTR Value .1e-6
SYMBOL cap 208 784 R90
WINDOW 0 0 32 VBottom 2
WINDOW 3 32 32 VTop 2
SYMATTR InstName C10
SYMATTR Value 10e-6
SYMBOL cap 208 1200 R90
WINDOW 0 0 32 VBottom 2
WINDOW 3 32 32 VTop 2
SYMATTR InstName C11
SYMATTR Value .1e-6
SYMBOL cap 208 1296 R90
WINDOW 0 0 32 VBottom 2
WINDOW 3 32 32 VTop 2
SYMATTR InstName C12
SYMATTR Value 10e-6
SYMBOL Opamps\\AD8221 96 1808 R0
SYMATTR InstName U3
SYMBOL res -64 1760 R0
SYMATTR InstName R7
SYMATTR Value 499
SYMATTR SpiceLine tol=.1 pwr=.25
SYMBOL cap 208 1648 R90
WINDOW 0 0 32 VBottom 2
WINDOW 3 32 32 VTop 2
SYMATTR InstName C13
SYMATTR Value .1e-6
SYMBOL cap 208 1552 R90
WINDOW 0 0 32 VBottom 2
WINDOW 3 32 32 VTop 2
SYMATTR InstName C14
SYMATTR Value 10e-6
SYMBOL cap 208 1968 R90
WINDOW 0 0 32 VBottom 2
WINDOW 3 32 32 VTop 2
SYMATTR InstName C15
SYMATTR Value .1e-6
SYMBOL cap 208 2064 R90
WINDOW 0 0 32 VBottom 2
WINDOW 3 32 32 VTop 2
SYMATTR InstName C16
SYMATTR Value 10e-6
SYMBOL cap -272 1552 R90
WINDOW 0 0 32 VBottom 2
WINDOW 3 32 32 VTop 2
SYMATTR InstName C17
SYMATTR Value .1e-6
SYMBOL res -256 1584 R270
WINDOW 0 32 56 VTop 2
WINDOW 3 0 56 VBottom 2
SYMATTR InstName R8
SYMATTR Value 3e6
SYMBOL cap -176 1712 R90
WINDOW 0 0 32 VBottom 2
WINDOW 3 32 32 VTop 2
SYMATTR InstName C18
SYMATTR Value .1e-6
SYMBOL res -160 1712 R0
SYMATTR InstName R9
SYMATTR Value 3e6
SYMBOL voltage -736 1616 R180
WINDOW 123 34 93 Left 2
WINDOW 39 0 0 Left 0
WINDOW 0 34 59 Left 2
WINDOW 3 -288 58 Left 2
SYMATTR Value2 AC .05
SYMATTR InstName V9
SYMATTR Value SINE(0 .05 10 0 0 360)
TEXT -1208 440 Left 2 !.ac dec 10 .01 1000
